39

O         -0.04819       -2.01605       -2.47646
O          0.05667       -0.67749       -1.94135
C          2.39625       -2.47917       -0.55239
H          2.24729       -0.24392       -1.65512
N          2.00393       -1.24720        0.14012
C          2.52464       -0.08266       -0.60105
C         -2.77035        0.64955       -1.70216
C         -3.70765       -0.11600        0.92180
P         -2.17257        0.20656       -0.02668
H          3.62423       -0.01324       -0.50776
C          2.53779       -1.24181        1.50431
C         -0.59321       -1.34333        1.86168
C          1.86066        1.20556       -0.19696
N          0.56759        1.08784        0.13363
C         -1.63830        1.86266        0.69978
C         -0.20747        2.16167        0.35840
C          2.46680        2.45591       -0.26299
H          3.52394        2.54289       -0.51795
H         -1.71414        1.71764        1.79252
H         -2.30447        2.69633        0.42805
C          0.33418        3.44392        0.27597
C          1.68706        3.58600       -0.02315
H         -0.29557        4.31699        0.45222
H          2.13311        4.58084       -0.07783
O         -0.87447       -1.61922        2.96363
H         -3.41804        1.53889       -1.69206
H         -3.33170       -0.20422       -2.11033
H         -1.88169        0.80270       -2.33215
H         -3.43984       -0.33107        1.96620
H         -4.19367       -1.00886        0.50298
H         -4.40554        0.73438        0.87989
H          2.04731       -3.33768        0.03619
H          3.49709       -2.54163       -0.66122
H          1.90799       -2.50833       -1.53414
H          2.24730       -0.31163        2.01051
H          3.64237       -1.32363        1.49550
H          2.11572       -2.08513        2.06483
Ru        -0.23290       -0.90538        0.11456
H         -1.00870       -2.14837       -2.48718
