39
Structure 2
O              -0.59811            -2.68790            -0.62573
O               0.08461            -0.66527            -1.99946
C               2.33245            -2.36717            -0.88861
H               2.30242            -0.04355            -1.72985
N               2.02792            -1.20737            -0.04670
C               2.55335             0.02271            -0.65749
C              -2.63368             0.78182            -1.91826
C              -3.68789            -0.18766             0.59301
P              -2.12900             0.29460            -0.23498
H               3.65152             0.09515            -0.55023
C               2.56920            -1.38382             1.29925
C              -0.50703            -1.10349             1.75893
C               1.87529             1.26354            -0.14558
N               0.56336             1.11929             0.13145
C              -1.66763             1.89485             0.63365
C              -0.21340             2.18967             0.40761
C               2.48462             2.51028            -0.07498
H               3.55106             2.60578            -0.28255
H              -1.83176             1.68980             1.70676
H              -2.30101             2.75248             0.35952
C               0.34245             3.46554             0.45933
C               1.70727             3.62421             0.23490
H              -0.29338             4.32380             0.67917
H               2.16117             4.61520             0.28745
O              -0.77125            -1.32748             2.86881
H              -3.44857             1.52059            -1.90409
H              -2.94808            -0.12817            -2.44887
H              -1.74649             1.16433            -2.43955
H              -3.47521            -0.43326             1.64321
H              -4.07168            -1.09127             0.09724
H              -4.44700             0.60725             0.53897
H               1.87986            -3.25396            -0.42968
H               3.42557            -2.49601            -1.00131
H               1.84266            -2.21131            -1.85851
H               2.33330            -0.50359             1.91386
H               3.66745            -1.52241             1.27190
H               2.10570            -2.26563             1.75937
Ru             -0.18682            -0.79019            -0.05427
H              -1.31977            -3.06703            -0.10988
