39
Structure 3
O              -0.64498            -2.66233            -0.67978
O               0.00978            -0.91921            -1.96983
C               2.35729            -2.41250            -0.77432
H               2.25436            -0.12194            -1.70924
N               2.01875            -1.22656             0.01540
C               2.53248            -0.01898            -0.64676
C              -2.68988             0.77270            -1.83664
C              -3.67823            -0.20076             0.70015
P              -2.14331             0.28889            -0.16176
H               3.63300             0.05546            -0.56546
C               2.55820            -1.33461             1.37013
C              -0.52493            -1.09615             1.79869
C               1.86739             1.23814            -0.16024
N               0.56249             1.10313             0.14902
C              -1.65673             1.89606             0.67750
C              -0.20806             2.18297             0.40836
C               2.47843             2.48634            -0.14413
H               3.54000             2.57402            -0.37822
H              -1.78776             1.69677             1.75634
H              -2.29494             2.75410             0.41668
C               0.34884             3.45932             0.40727
C               1.70835             3.60976             0.14746
H              -0.28135             4.32438             0.61640
H               2.16328             4.60164             0.15860
O              -0.80437            -1.32223             2.90523
H              -3.50668             1.50904            -1.80640
H              -3.01722            -0.13489            -2.36327
H              -1.82232             1.16957            -2.38109
H              -3.44260            -0.41861             1.75134
H              -4.04311            -1.12746             0.23397
H              -4.45488             0.57625             0.63899
H               1.92731            -3.29366            -0.28445
H               3.45458            -2.51861            -0.87073
H               1.87973            -2.30876            -1.75669
H               2.29472            -0.43797             1.94823
H               3.65993            -1.44423             1.35170
H               2.11798            -2.20917             1.86541
Ru             -0.20384            -0.79786            -0.01057
H              -0.97826            -2.48769            -1.57346
