64
Structure 2
N              -0.75973             1.19030            -0.06252
C              -1.91574             1.74071             0.34848
C               0.16357             1.95345            -0.67448
C              -2.17780             3.09712             0.19761
C              -1.21818             3.90497            -0.40435
C              -0.04069             3.32418            -0.85188
C              -2.90798             0.79917             0.96594
H              -3.12971             3.50289             0.54181
H              -1.39477             4.97402            -0.53683
H               0.72854             3.91778            -1.34719
C               1.39775             1.28549            -1.18949
N              -3.01001            -0.41726             0.18289
H              -3.87565             1.32047             1.10556
H              -2.54557             0.51887             1.96987
H               1.09323             0.74977            -2.10905
P               1.97837            -0.10827            -0.10979
H               2.17185             2.02828            -1.42772
Ru             -0.46813            -1.00220             0.04028
C              -3.51356            -0.19156            -1.17563
C               3.23155            -0.97762            -1.24629
C              -3.70745            -1.46569             0.92738
C               2.84573             0.73029             1.36086
C               2.40307            -1.87270            -2.17350
C               4.14484            -1.87471            -0.41054
C               4.06923            -0.01704            -2.09118
C               1.84076             1.71624             1.96655
C               4.12589             1.48423             1.00985
C               3.12794            -0.34684             2.41403
C              -0.44748            -1.23701             1.87465
O              -0.43442            -1.43214             3.02512
H              -2.83854             0.53111            -1.65524
C              -4.96307             0.26219            -1.28123
H              -3.35072            -1.11982            -1.73751
H              -3.16526            -1.58279             1.87934
C              -3.73871            -2.79659             0.20146
H              -4.73799            -1.14554             1.19014
O              -0.33570            -2.91010            -0.42307
H              -0.24599            -3.50059             0.33598
O              -0.59312            -0.86724            -1.98110
H              -0.56639            -1.79529            -2.25349
H              -2.72778            -3.07055            -0.13976
H              -4.40977            -2.78135            -0.67025
H              -4.10679            -3.57631             0.88486
H              -5.22490             0.40599            -2.34038
H              -5.14414             1.22078            -0.76939
H              -5.66463            -0.47826            -0.86650
H               3.08648            -2.38951            -2.86856
H               1.66800            -1.29958            -2.75579
H               1.83396            -2.61982            -1.60155
H               4.73073            -2.51536            -1.09042
H               3.56489            -2.53661             0.25071
H               4.85928            -1.30523             0.20089
H               4.77263            -0.60387            -2.70653
H               4.66218             0.68276            -1.48731
H               3.44505             0.56406            -2.78530
H               4.92655             0.81321             0.66919
H               4.49877             2.01057             1.90578
H               3.95759             2.24420             0.23094
H               3.87656            -1.07731             2.08285
H               2.21093            -0.89156             2.68199
H               3.51421             0.13381             3.32879
H               2.24253             2.08884             2.92355
H               0.87117             1.23887             2.17137
H               1.66801             2.58817             1.31948
