65
Structure 4
H              -3.69992            -3.38410             1.36416
C              -3.29004            -2.77812             0.54305
H              -3.92310            -2.95208            -0.33994
H              -2.27982            -3.14892             0.32779
H               1.43826            -0.97435             2.50904
O              -0.92777            -0.03259             3.13372
H               4.17788            -1.89873             0.06921
O              -0.54362            -0.52048             4.23495
C              -3.27201            -1.32924             0.97703
H               2.96813            -0.51912             3.29985
H              -4.30924            -0.98072             1.14879
C               2.49946            -0.74988             2.32872
H               2.65273            -2.74895            -0.29565
H               2.98506            -1.65043             1.92840
H              -2.72734            -1.22162             1.92627
C               3.46052            -2.14132            -0.72734
H               3.98926            -2.76456            -1.46788
H              -2.63448             0.97139             1.61243
Ru             -0.37485            -0.54238            -0.03155
H               0.78985             1.39549             2.05404
N              -2.60353            -0.39865             0.03195
C              -2.84400             0.96983             0.53243
C               2.65186             0.46129             1.40299
H               2.21245             1.78478             3.04820
H               4.78064             0.27109            -1.18136
C               1.86468             1.62594             2.01416
C               2.92467            -0.88789            -1.42213
P               1.78188             0.05106            -0.23350
H              -3.89622             1.27576             0.40487
C               4.08707            -0.05513            -1.96581
H              -2.74158            -1.53318            -1.71200
H              -5.16815            -1.10789            -1.04738
H               4.66208            -0.66857            -2.67984
C              -3.07424            -0.54470            -1.36748
H               4.48945             1.19196             2.25644
C               0.00157            -2.31130             0.24664
C               4.11799             0.86253             1.27145
H               1.19737            -1.94428            -2.24884
C               2.03442            -1.32047            -2.59252
H               4.75423             0.02662             0.94830
H               2.63864            -1.89676            -3.31316
C              -1.91730             1.97777            -0.06920
N              -0.68992             1.50954            -0.35659
C              -4.56825            -0.37607            -1.60779
H               2.01671             2.56831             1.46418
H              -2.51221             0.19021            -1.96431
H               3.74374             0.83550            -2.51320
H              -4.92983             0.63052            -1.35113
C               1.61072             1.71357            -1.08989
H              -4.77452            -0.53092            -2.67734
H               4.26366             1.70091             0.57191
C               0.28538             2.34167            -0.78120
C              -2.23593             3.32077            -0.22785
H               1.60787            -0.45998            -3.13243
H              -3.23537             3.67568             0.02185
H               1.64428             1.49263            -2.16968
H               2.43968             2.40693            -0.88138
C               0.03244             3.70267            -0.93019
C              -1.24294             4.19325            -0.65931
H               0.82990             4.36714            -1.26452
H              -1.45788             5.25685            -0.77739
O               0.30217            -3.42809             0.41016
O              -1.52513             2.63133             2.89025
H              -1.32087             1.71242             3.16590
H              -0.64979             3.01021             2.75125
