65
Structure 6
H              -3.89034            -3.03376             1.38067
C              -3.41103            -2.47114             0.56603
H              -3.95220            -2.71171            -0.36139
H              -2.37595            -2.82492             0.46952
H               1.44123            -0.44026             2.68897
O              -0.15734            -2.37345             4.37889
H               4.04996            -1.78270             0.33851
O               0.96255            -2.77193             4.50026
C              -3.45059            -0.99640             0.89960
H               3.01398             0.05611             3.37147
H              -4.50201            -0.64804             0.93773
C               2.50178            -0.28129             2.45440
H               2.48445            -2.60430             0.09678
H               2.93574            -1.24647             2.16052
H              -3.01186            -0.81302             1.89075
C               3.31106            -2.09060            -0.41537
H               3.80337            -2.82307            -1.07733
H              -2.72507             1.29503             1.47592
Ru             -0.44938            -0.32580             0.05115
H               0.83721             1.84897             2.00918
N              -2.68568            -0.13279            -0.02996
C              -2.90788             1.26693             0.38838
C               2.64366             0.79271             1.37327
H               2.33098             2.34762             2.83625
H               4.73093             0.17476            -1.18352
C               1.90958             2.04597             1.86258
C               2.81475            -0.91013            -1.25247
P               1.70276             0.19582            -0.17312
H              -3.94867             1.59212             0.21042
C               3.99838            -0.19826            -1.90927
H              -2.72031            -1.34383            -1.72598
H              -5.17996            -0.86882            -1.27248
H               4.52287            -0.91071            -2.56888
C              -3.06000            -0.33626            -1.45082
H               4.52735             1.57916             2.06751
C              -0.09786            -1.96931             0.75104
C               4.11423             1.13109             1.14764
H               1.01478            -1.94968            -1.91796
C               1.89246            -1.44872            -2.35195
H               4.71852             0.24157             0.92058
H               2.45278            -2.16167            -2.98071
C              -1.93847             2.20687            -0.25911
N              -0.71939             1.67851            -0.48718
C              -4.53093            -0.15562            -1.80167
H               2.02817             2.89920             1.17705
H              -2.44323             0.35803            -2.04042
H               3.68019             0.64582            -2.53985
H              -4.89692             0.86037            -1.59099
C               1.58278             1.75287            -1.22266
H              -4.66196            -0.32962            -2.88017
H               4.25729             1.86322             0.33739
C               0.27852             2.44690            -0.97914
C              -2.21451             3.54184            -0.52631
H               1.52117            -0.64686            -3.01023
H              -3.21083             3.94172            -0.33420
H               1.59780             1.40203            -2.26778
H               2.43235             2.44261            -1.10400
C               0.06632             3.79822            -1.24110
C              -1.19223             4.35069            -1.01745
H               0.88502             4.40726            -1.62609
H              -1.37505             5.40639            -1.22535
O               0.18641            -2.99675             1.24609
O              -1.16640             0.47068             3.00924
H              -1.01949            -0.33686             3.51954
H              -0.76898             0.21781             2.11815
