39
Structure 3
O              -0.35888            -2.11742             1.27912
O              -0.44411            -0.06772             2.07038
C              -3.20107            -1.23241             1.43075
H              -2.37136             1.07782             1.80737
N              -2.68162            -0.36736             0.37015
C              -2.77396             1.04210             0.78081
C               2.54058             0.65918             1.31852
C               2.97181            -1.07764            -0.96257
P               1.71055            -0.03483            -0.14959
H              -3.82094             1.39795             0.77695
C              -3.40946            -0.58693            -0.87880
C              -0.48059            -1.38796            -1.55338
C              -1.89228             1.94108            -0.03774
N              -0.73483             1.38413            -0.44442
C               1.50399             1.40322            -1.33570
C               0.23523             2.13470            -1.01137
C              -2.15545             3.28679            -0.26587
H              -3.10602             3.71535             0.05396
H               1.40957             0.93180            -2.33026
H               2.36967             2.08215            -1.36618
C               0.03500             3.49322            -1.23761
C              -1.18068             4.07047            -0.87839
H               0.82625             4.08889            -1.69405
H              -1.36058             5.13125            -1.06066
O              -0.46933            -1.94883            -2.57247
H              -0.08595            -0.89097             2.44426
H               3.45559             1.20968             1.05467
H               2.78446            -0.17347             1.99418
H               1.81255             1.29814             1.83717
H               2.56006            -1.46740            -1.90423
H               3.18340            -1.93028            -0.30125
H               3.90182            -0.52291            -1.15806
H              -3.06879            -2.27789             1.12682
H              -4.26972            -1.02086             1.62406
H              -2.59687            -1.05757             2.32942
H              -3.00326             0.06398            -1.66528
H              -4.48831            -0.37284            -0.75184
H              -3.28495            -1.63119            -1.19224
Ru             -0.43811            -0.59223             0.12264
