62
Structure 5
H              -4.11348            -3.49365             1.10604
C              -3.83014            -2.75248             0.34421
H              -4.62099            -2.74974            -0.42204
H              -2.89566            -3.09078            -0.12688
H               1.96019            -0.67168             2.87371
O               0.56059            -2.47440             1.52955
H               4.67390            -1.59132             0.72294
O              -0.58126            -0.58818             2.16303
C              -3.64270            -1.39846             1.00145
H               3.23786             0.36048             3.57655
H              -4.59631            -1.08027             1.47965
C               2.92711            -0.18761             2.67214
H               3.19834            -2.60583             0.70088
H               3.67305            -0.96924             2.48245
H              -2.89716            -1.48946             1.80689
C               3.95029            -2.10231             0.07259
H               4.49953            -2.87426            -0.49062
H              -2.26112             0.51404             1.73544
Ru              0.12286            -1.07104             0.65484
H               0.81886             1.45692             2.14141
N              -3.12701            -0.37991             0.09619
C              -2.77735             0.82665             0.81111
C               2.81482             0.81735             1.52200
H               2.17294             2.35967             2.87075
H               4.95303             0.29831            -1.02393
C               1.80823             1.89651             1.93960
C               3.29163            -1.14412            -0.92059
P               2.07110            -0.04167             0.00882
H              -3.65313             1.45179             1.08563
C               4.34343            -0.33402            -1.68119
H              -3.87559            -1.07121            -1.71348
H              -5.94492            -0.46583            -0.39356
H               5.02460            -1.03378            -2.19288
C              -3.90266            -0.14944            -1.11172
H               4.47969             2.04764             2.10628
C              -0.65489            -1.48641            -1.02035
C               4.17005             1.45776             1.22815
H               1.80001            -2.66854            -1.40669
C               2.47650            -1.97160            -1.92072
H               4.95391             0.70897             1.04654
H               3.17426            -2.56255            -2.53654
C              -1.80032             1.68111             0.05326
N              -0.59084             1.16240            -0.23124
C              -5.34978             0.29704            -0.91876
H               1.70795             2.69731             1.19155
H              -3.36052             0.60474            -1.70722
H               3.89397             0.30428            -2.45672
H              -5.42176             1.23164            -0.34024
C               1.64269             1.29004            -1.19539
H              -5.82565             0.47504            -1.89545
H               4.13716             2.14663             0.36941
C               0.30828             1.91171            -0.88697
C              -2.12990             2.98730            -0.31286
H               1.87567            -1.35187            -2.60385
H              -3.11870             3.37337            -0.06164
H               1.58869             0.78701            -2.17545
H               2.42686             2.05851            -1.26628
C               0.04034             3.22222            -1.28273
C              -1.20200             3.76925            -0.98857
H               0.80238             3.79737            -1.81066
H              -1.44323             4.79198            -1.28470
O              -1.20860            -1.81943            -1.97968
