62
Structure 1
H              -4.15899            -3.45958             1.17919
C              -3.81659            -2.74738             0.41395
H              -4.53650            -2.78838            -0.41810
H              -2.84079            -3.09317             0.04224
H               1.96602            -0.60939             2.95234
O               0.91103            -2.57590             1.12918
H               4.68213            -1.59208             0.67204
O              -0.70240            -0.46242             2.20969
C              -3.70282            -1.36414             1.02565
H               3.35188             0.33058             3.57026
H              -4.69498            -1.04584             1.41713
C               2.95206            -0.20002             2.69061
H               3.20105            -2.61305             0.66488
H               3.62054            -1.04019             2.46757
H              -3.02007            -1.40844             1.88832
C               3.94722            -2.10316             0.03376
H               4.49025            -2.86245            -0.55246
H              -2.40765             0.60132             1.78064
Ru              0.10847            -1.02602             0.76761
H               0.87685             1.52160             2.16724
N              -3.13652            -0.37257             0.12075
C              -2.85662             0.86654             0.81025
C               2.84708             0.80117             1.53634
H               2.26909             2.36284             2.89283
H               4.90281             0.31744            -1.07922
C               1.88402             1.91605             1.96189
C               3.25603            -1.14190            -0.93400
P               2.06130            -0.05207             0.04111
H              -3.75992             1.48464             0.99661
C               4.27705            -0.31597            -1.71995
H              -3.75094            -1.13778            -1.71045
H              -5.91458            -0.52616            -0.55594
H               4.94729            -1.00934            -2.25401
C              -3.83307            -0.19715            -1.14433
H               4.55533             1.98409             2.08997
C              -0.62944            -1.50689            -0.88692
C               4.21514             1.40162             1.21812
H               1.76861            -2.67238            -1.37787
C               2.41656            -1.96728            -1.91484
H               4.97378             0.63082             1.02410
H               3.10245            -2.54127            -2.55914
C              -1.84490             1.71312             0.08769
N              -0.62864             1.19127            -0.15907
C              -5.29660             0.22934            -1.06507
H               1.81248             2.72194             1.21595
H              -3.26337             0.54575            -1.72799
H               3.80118             0.32136            -2.48051
H              -5.42371             1.18187            -0.52676
C               1.60698             1.29215            -1.13567
H              -5.70631             0.36504            -2.07779
H               4.18617             2.08998             0.35900
C               0.28170             1.92725            -0.81286
C              -2.16258             3.01720            -0.29531
H               1.79007            -1.34575            -2.57381
H              -3.15807             3.40553            -0.07600
H               1.53232             0.79962            -2.11996
H               2.39575             2.05463            -1.21648
C               0.02820             3.23829            -1.21867
C              -1.21493             3.79432            -0.94901
H               0.80169             3.80422            -1.73994
H              -1.44481             4.81719            -1.25355
O              -1.15964            -1.83674            -1.85779
