62
Structure 8
H              -3.64760            -3.34160             1.67157
C              -3.38014            -2.69923             0.82022
H              -4.15420            -2.83257             0.04833
H              -2.40854            -3.04422             0.43966
H               1.52545            -0.81899             2.67381
O              -0.34048            -2.14305             1.39861
H               4.34984            -1.67996             0.72296
O              -0.50426            -0.44760             2.15096
C              -3.25749            -1.27259             1.30969
H               2.79190             0.11287             3.53007
H              -4.23762            -0.88429             1.64794
C               2.53142            -0.38174             2.57858
H               2.87423            -2.67552             0.58311
H               3.26929            -1.17514             2.40938
H              -2.54550            -1.23097             2.14794
C               3.66238            -2.15971             0.01379
H               4.23660            -2.92085            -0.53997
H              -2.27464             0.95224             1.83357
Ru             -0.43224            -0.60230             0.09855
H               0.59597             1.43771             2.07745
N              -2.69175            -0.35454             0.29446
C              -2.70614             1.02162             0.82049
C               2.54225             0.67890             1.47089
H               1.99011             2.22414             2.85792
H               4.73803             0.27710            -0.96781
C               1.61255             1.81864             1.90492
C               3.06807            -1.16725            -0.98755
P               1.78563            -0.08013            -0.09917
H              -3.72696             1.43190             0.90139
C               4.17482            -0.35466            -1.66437
H              -3.20945            -1.42210            -1.42094
H              -5.43596            -0.82708            -0.36447
H               4.88987            -1.05331            -2.13019
C              -3.38530            -0.42032            -1.01049
H               4.24765             1.75817             2.20578
C              -0.57436            -1.23873            -1.61729
C               3.94787             1.24432             1.27703
H               1.58916            -2.64213            -1.62432
C               2.34047            -1.97295            -2.06321
H               4.69536             0.46200             1.08694
H               3.08105            -2.58946            -2.59908
C              -1.82210             1.93404             0.01909
N              -0.67141             1.36737            -0.39748
C              -4.87679            -0.12205            -0.99669
H               1.58767             2.64889             1.18259
H              -2.86689             0.28044            -1.68268
H               3.78119             0.28380            -2.46951
H              -5.10622             0.89863            -0.65554
C               1.57376             1.36970            -1.28324
H              -5.26699            -0.21584            -2.02118
H               4.00192             1.98599             0.46402
C               0.30005             2.09999            -0.98149
C              -2.07650             3.27965            -0.21370
H               1.84154            -1.33787            -2.80904
H              -3.01776             3.71968             0.11726
H               1.49070             0.89883            -2.27846
H               2.42855             2.06114            -1.31365
C               0.09722             3.45543            -1.23164
C              -1.10653             4.04579            -0.85737
H               0.88428             4.03996            -1.70907
H              -1.28231             5.10496            -1.05278
O              -0.76561            -1.67122            -2.68314
