62
Structure 6
H              -3.99323            -3.50965             1.18152
C              -3.73487            -2.77172             0.40783
H              -4.53059            -2.79941            -0.35285
H              -2.79321            -3.09129            -0.06275
H               1.80346            -0.63075             2.84391
O               0.25816            -2.37063             1.50844
H               4.61016            -1.62190             0.75558
O              -0.45191            -0.43721             2.12541
C              -3.57648            -1.40453             1.04482
H               3.12933             0.31385             3.58313
H              -4.52991            -1.10481             1.53437
C               2.80692            -0.21284             2.66996
H               3.13446            -2.62775             0.66832
H               3.50998            -1.03715             2.49535
H              -2.81592            -1.46562             1.83939
C               3.90715            -2.11770             0.07204
H               4.47033            -2.88455            -0.48420
H              -2.20708             0.54448             1.72296
Ru              0.06330            -0.98524             0.52120
H               0.79136             1.49785             2.07741
N              -3.10230            -0.38734             0.11565
C              -2.74810             0.83343             0.80280
C               2.77928             0.80115             1.52238
H               2.14915             2.36331             2.85107
H               4.97070             0.27735            -0.96771
C               1.79779             1.91451             1.90770
C               3.28552            -1.14081            -0.92678
P               2.05945            -0.02855            -0.01728
H              -3.62169             1.45909             1.08128
C               4.36788            -0.33533            -1.64907
H              -3.88655            -1.11015            -1.66777
H              -5.92992            -0.52129            -0.30357
H               5.05038            -1.03739            -2.15572
C              -3.91117            -0.18252            -1.07525
H               4.46544             1.96522             2.17112
C              -0.65970            -1.42881            -1.18673
C               4.16681             1.39167             1.27856
H               1.78425            -2.63525            -1.47511
C               2.49055            -1.94668            -1.95956
H               4.93036             0.61711             1.11973
H               3.19822            -2.54447            -2.55715
C              -1.78415             1.68081             0.02224
N              -0.57459             1.16381            -0.27653
C              -5.35917             0.24533            -0.84988
H               1.75150             2.71978             1.15866
H              -3.39502             0.57257            -1.69231
H               3.94638             0.32158            -2.42475
H              -5.43015             1.18398            -0.27785
C               1.66639             1.31651            -1.22135
H              -5.86160             0.40768            -1.81594
H               4.18833             2.08661             0.42413
C               0.32544             1.92583            -0.92370
C              -2.11608             2.98802            -0.33623
H               1.92314            -1.31094            -2.65619
H              -3.10431             3.36972            -0.07678
H               1.63217             0.82318            -2.20710
H               2.44875             2.08889            -1.26664
C               0.05059             3.23707            -1.30754
C              -1.19429             3.77712            -1.01074
H               0.81150             3.81965            -1.82850
H              -1.44016             4.80046            -1.30047
O              -1.21728            -1.71143            -2.15948
