64
Structure 8
N              -0.71213             1.39553            -0.07220
C              -1.91135             1.88916             0.29171
C               0.19160             2.17470            -0.69952
C              -2.23358             3.22427             0.08900
C              -1.28961             4.05901            -0.50648
C              -0.07073             3.52723            -0.91330
C              -2.82214             0.87857             0.91912
H              -3.21253             3.59900             0.38975
H              -1.51223             5.11459            -0.67138
H               0.67571             4.14907            -1.40876
C               1.43561             1.49090            -1.17307
N              -2.73421            -0.41310             0.21863
H              -3.85696             1.26201             0.95735
H              -2.49367             0.71189             1.95846
H               1.21874             1.08962            -2.17909
P               1.77900            -0.05520            -0.17298
H               2.28066             2.18998            -1.25173
Ru             -0.41280            -0.64666             0.09341
C              -3.30076            -0.31540            -1.14531
C               3.01266            -0.99793            -1.28573
C              -3.40026            -1.45021             1.03534
C               2.70215             0.60526             1.36431
C               2.18967            -1.75215            -2.33211
C               3.76252            -2.03875            -0.45305
C               4.00075            -0.08843            -2.01993
C               1.83261             1.69968             1.99472
C               4.06142             1.22462             1.03599
C               2.89564            -0.51488             2.39108
C              -0.36778            -0.82810             1.93572
O              -0.43238            -1.08518             3.07491
H              -2.75888             0.49451            -1.65309
C              -4.80220            -0.09289            -1.23066
H              -2.97912            -1.21754            -1.67808
H              -2.84712            -1.50140             1.98452
C              -3.40691            -2.81072             0.36903
H              -4.42909            -1.12123             1.28508
O              -0.44630            -2.47954            -0.66235
H              -0.18682            -3.15940             0.01230
O              -0.75004            -1.06396            -1.77999
H              -0.13918            -1.71042            -2.11939
H              -2.40939            -3.01414            -0.05575
H              -4.15023            -2.87316            -0.43973
H              -3.66046            -3.57996             1.11347
H              -5.08419            -0.01344            -2.29133
H              -5.13361             0.83651            -0.74041
H              -5.38027            -0.92527            -0.80219
H               2.88083            -2.30677            -2.98888
H               1.59640            -1.07265            -2.96119
H               1.50471            -2.46369            -1.84558
H               4.30617            -2.71300            -1.13539
H               3.06906            -2.65518             0.13932
H               4.50340            -1.59128             0.22333
H               4.65814            -0.71964            -2.64159
H               4.64344             0.49698            -1.35213
H               3.48724             0.60417            -2.70288
H               4.79681             0.47908             0.70611
H               4.46307             1.69477             1.94917
H               3.99310             2.01153             0.26963
H               3.59074            -1.28810             2.04312
H               1.95041            -0.99930             2.66106
H               3.31971            -0.07913             3.31130
H               2.29984             2.01422             2.94222
H               0.81739             1.34645             2.21633
H               1.75920             2.59097             1.35415
