64
Structure 5
N              -0.70512             1.39258            -0.04953
C              -1.91288             1.87689             0.29750
C               0.19355             2.17196            -0.68542
C              -2.24504             3.20779             0.08340
C              -1.30334             4.04655            -0.50956
C              -0.07947             3.52125            -0.90806
C              -2.82611             0.86206             0.91334
H              -3.23036             3.57501             0.37205
H              -1.53320             5.09933            -0.68250
H               0.66303             4.14411            -1.40790
C               1.43473             1.49275            -1.16915
N              -2.73635            -0.42728             0.20777
H              -3.86060             1.24646             0.95033
H              -2.50327             0.68800             1.95290
H               1.19028             1.06623            -2.15864
P               1.79405            -0.04581            -0.17140
H               2.27454             2.19414            -1.27211
Ru             -0.39370            -0.63248             0.10035
C              -3.29305            -0.33032            -1.15776
C               3.00627            -1.00309            -1.28870
C              -3.40512            -1.46125             1.02401
C               2.71737             0.60830             1.36544
C               2.17871            -1.75909            -2.33034
C               3.76459            -2.03718            -0.45496
C               3.99012            -0.09112            -2.02635
C               1.84555             1.69937             1.99846
C               4.07652             1.22868             1.03897
C               2.90731            -0.51419             2.39031
C              -0.37690            -0.85658             1.93322
O              -0.44093            -1.10091             3.07521
H              -2.71524             0.44150            -1.68264
C              -4.78698            -0.06184            -1.25393
H              -3.02009            -1.25779            -1.67348
H              -2.85732            -1.50664             1.97668
C              -3.40744            -2.82689             0.36921
H              -4.43654            -1.13518             1.26729
O              -0.37171            -2.52894            -0.57452
H              -0.07643            -3.19984             0.05630
O              -0.57791            -0.73015            -1.87290
H              -0.49726            -1.68608            -1.99739
H              -2.40086            -3.04677            -0.02299
H              -4.13039            -2.89097            -0.45783
H              -3.68890            -3.58654             1.11355
H              -5.06626            -0.00812            -2.31694
H              -5.08479             0.89475            -0.79630
H              -5.39370            -0.85852            -0.79736
H               2.87442            -2.31893            -2.97887
H               1.57483            -1.08409            -2.95073
H               1.47968            -2.45316            -1.84319
H               4.30590            -2.71155            -1.13889
H               3.07716            -2.65498             0.14273
H               4.50819            -1.58612             0.21650
H               4.64729            -0.72277            -2.64762
H               4.63326             0.49889            -1.36242
H               3.47119             0.59590            -2.71055
H               4.81035             0.48428             0.70289
H               4.48071             1.69424             1.95349
H               4.00637             2.01877             0.27599
H               3.59869            -1.29006             2.04077
H               1.95898            -0.99406             2.65888
H               3.33332            -0.08221             3.31146
H               2.31204             2.01391             2.94636
H               0.83136             1.34293             2.22066
H               1.76840             2.59137             1.35933
