62
Structure 8
H              -3.64169            -3.30680             1.75003
C              -3.34693            -2.69043             0.88837
H              -4.09217            -2.85450             0.09449
H              -2.36448            -3.04835             0.54493
H               1.48508            -0.76514             2.69719
O              -0.26393            -2.16390             1.20896
H               4.33434            -1.69467             0.71495
O              -0.48430            -0.52466             2.06439
C              -3.25074            -1.24756             1.33340
H               2.82671             0.09361             3.52387
H              -4.23667            -0.86632             1.66114
C               2.51488            -0.38735             2.58083
H               2.86217            -2.69213             0.54841
H               3.20536            -1.21842             2.39230
H              -2.53553            -1.16265             2.16842
C               3.65381            -2.16598            -0.00648
H               4.23298            -2.91897            -0.56598
H              -2.22863             0.95579             1.81635
Ru             -0.42962            -0.63115             0.08619
H               0.59255             1.42317             2.06349
N              -2.69795            -0.34733             0.29630
C              -2.69624             1.02954             0.81813
C               2.54304             0.67426             1.47496
H               1.97815             2.20584             2.86950
H               4.74423             0.27232            -0.95947
C               1.61022             1.81203             1.90773
C               3.06584            -1.16192            -0.99974
P               1.79450            -0.07150            -0.10319
H              -3.71389             1.44097             0.92697
C               4.17845            -0.34723            -1.66488
H              -3.22899            -1.42998            -1.40485
H              -5.44791            -0.84792            -0.33476
H               4.88970            -1.04487            -2.13764
C              -3.40607            -0.42639            -0.99867
H               4.24819             1.74494             2.21820
C              -0.59594            -1.25461            -1.65841
C               3.95281             1.23135             1.28805
H               1.58504            -2.62814            -1.65300
C               2.33500            -1.95262            -2.08438
H               4.69776             0.44484             1.10423
H               3.07511            -2.56059            -2.63056
C              -1.82557             1.93854             0.00197
N              -0.67181             1.37452            -0.40404
C              -4.89872            -0.13578            -0.96785
H               1.59799             2.65053             1.19454
H              -2.89912             0.27258            -1.68150
H               3.78999             0.30316            -2.46287
H              -5.12849             0.88129            -0.61622
C               1.57810             1.38133            -1.27353
H              -5.29944            -0.22406            -1.98875
H               4.01649             1.97208             0.47478
C               0.30178             2.10996            -0.97480
C              -2.08489             3.28227            -0.23787
H               1.83356            -1.30702            -2.81948
H              -3.03090             3.71931             0.08340
H               1.50477             0.92396            -2.27562
H               2.43424             2.07167            -1.28485
C               0.10133             3.46551            -1.22624
C              -1.10996             4.05176            -0.86982
H               0.89332             4.05193            -1.69317
H              -1.28686             5.11022            -1.06808
O              -0.80495            -1.69642            -2.71632
