62
Structure 9
H              -3.67172            -3.30248             1.75113
C              -3.36128            -2.68833             0.89342
H              -4.09272            -2.85276             0.08706
H              -2.37279            -3.04602             0.56742
H               1.51082            -0.78037             2.70903
O              -0.29895            -2.13438             1.29834
H               4.34620            -1.68946             0.70940
O              -0.48250            -0.61243             2.07412
C              -3.27110            -1.24398             1.33476
H               2.84694             0.09729             3.51985
H              -4.26031            -0.86108             1.65052
C               2.53220            -0.38750             2.57979
H               2.87759            -2.69309             0.54729
H               3.22793            -1.21321             2.38744
H              -2.57133            -1.16246             2.18211
C               3.66561            -2.16397            -0.00998
H               4.24662            -2.91524            -0.56996
H              -2.23049             0.95806             1.82064
Ru             -0.42579            -0.62985             0.08576
H               0.58686             1.41057             2.06909
N              -2.70433            -0.35017             0.30204
C              -2.69555             1.02762             0.82085
C               2.54258             0.67194             1.47172
H               1.97111             2.19683             2.87186
H               4.74518             0.27699            -0.96526
C               1.60312             1.80200             1.91053
C               3.07153            -1.16274            -1.00237
P               1.79275            -0.07959            -0.10541
H              -3.71142             1.44454             0.92938
C               4.18021            -0.34453            -1.66960
H              -3.22972            -1.42868            -1.40377
H              -5.45470            -0.84310            -0.35001
H               4.89312            -1.03963            -2.14374
C              -3.40602            -0.42528            -0.99659
H               4.24151             1.75926             2.20786
C              -0.58492            -1.22858            -1.66529
C               3.94685             1.24126             1.27986
H               1.58991            -2.62924            -1.65438
C               2.34279            -1.95697            -2.08604
H               4.69760             0.46063             1.09471
H               3.08334            -2.56843            -2.62776
C              -1.82302             1.93419             0.00355
N              -0.66927             1.36910            -0.40204
C              -4.89791            -0.12936            -0.97463
H               1.58276             2.64163             1.19908
H              -2.89289             0.27282            -1.67551
H               3.78825             0.30457            -2.46689
H              -5.12620             0.88650            -0.61838
C               1.57963             1.37647            -1.27531
H              -5.29175            -0.20968            -1.99887
H               4.00130             1.98050             0.46475
C               0.30328             2.10440            -0.97670
C              -2.08271             3.27749            -0.23734
H               1.84486            -1.31330            -2.82515
H              -3.02866             3.71449             0.08423
H               1.50615             0.91795            -2.27685
H               2.43522             2.06754            -1.28834
C               0.10131             3.45940            -1.23021
C              -1.10909             4.04638            -0.87223
H               0.89185             4.04505            -1.70061
H              -1.28669             5.10439            -1.07218
O              -0.78807            -1.65003            -2.73271
