62
Structure 5
H              -3.59357            -3.30770             1.77405
C              -3.28797            -2.69794             0.91133
H              -4.00563            -2.89332             0.09923
H              -2.28280            -3.03010             0.60623
H               1.47744            -0.75637             2.70123
O              -0.20805            -2.31692             0.94035
H               4.30276            -1.72013             0.72428
O              -0.50007            -0.34113             2.06903
C              -3.24626            -1.24590             1.33506
H               2.81618             0.09574             3.53611
H              -4.25142            -0.88659             1.62867
C               2.50809            -0.38402             2.59134
H               2.81016            -2.68964             0.55645
H               3.19241            -1.22137             2.40905
H              -2.56390            -1.12747             2.19041
C               3.61385            -2.17986             0.00336
H               4.17949            -2.94419            -0.55448
H              -2.29219             0.98345             1.81959
Ru             -0.42968            -0.62196             0.09234
H               0.62971             1.49815             2.06534
N              -2.69295            -0.34413             0.29655
C              -2.72294             1.03939             0.80477
C               2.55701             0.67331             1.48244
H               2.04026             2.23012             2.86831
H               4.75210             0.23225            -0.96057
C               1.66155             1.84309             1.90809
C               3.04471            -1.16789            -0.99326
P               1.79330            -0.05924            -0.09417
H              -3.74896             1.43697             0.87577
C               4.16747            -0.37221            -1.66363
H              -3.19490            -1.44344            -1.40398
H              -5.43105            -0.92513            -0.35084
H               4.86030            -1.08140            -2.14641
C              -3.39776            -0.44377            -1.00057
H               4.29077             1.70209             2.21925
C              -0.59805            -1.19291            -1.66446
C               3.98054             1.19387             1.29103
H               1.53398            -2.60679            -1.63405
C               2.29805            -1.95139            -2.07236
H               4.70472             0.38850             1.10729
H               3.02636            -2.57956            -2.61141
C              -1.83923             1.95289             0.00678
N              -0.67486             1.39495            -0.37655
C              -4.89789            -0.19384            -0.97555
H               1.67799             2.67684             1.18957
H              -2.90838             0.26787            -1.68304
H               3.78473             0.29007            -2.45479
H              -5.15919             0.81426            -0.62032
C               1.57686             1.40346            -1.25100
H              -5.28887            -0.28775            -1.99970
H               4.06046             1.93081             0.47588
C               0.29843             2.13079            -0.94888
C              -2.10355             3.29363            -0.24453
H               1.81416            -1.30083            -2.81480
H              -3.05714             3.72665             0.05953
H               1.50450             0.95633            -2.25795
H               2.43340             2.09343            -1.25694
C               0.09325             3.48346            -1.20933
C              -1.12462             4.06585            -0.86712
H               0.88542             4.07119            -1.67444
H              -1.30492             5.12224            -1.07293
O              -0.80852            -1.56283            -2.74721
