64
Structure 1
N              -0.75337             1.19905            -0.06480
C              -1.89904             1.76169             0.35903
C               0.16778             1.95273            -0.69103
C              -2.15098             3.11992             0.20720
C              -1.19298             3.91690            -0.41196
C              -0.02673             3.32380            -0.87411
C              -2.88922             0.82616             0.98732
H              -3.09425             3.53578             0.56313
H              -1.36218             4.98686            -0.54644
H               0.74052             3.90861            -1.38285
C               1.39149             1.26765            -1.20809
N              -2.99685            -0.39182             0.20735
H              -3.85565             1.34867             1.13175
H              -2.51786             0.54568             1.98830
H               1.08818             0.72348            -2.12261
P               1.97094            -0.11381            -0.10820
H               2.16904             2.00167            -1.46208
Ru             -0.48040            -1.00809             0.03690
C              -3.49344            -0.16981            -1.15504
C               3.24347            -0.97128            -1.23525
C              -3.70476            -1.43302             0.95245
C               2.82394             0.74236             1.36200
C               2.43246            -1.88332            -2.16095
C               4.16987            -1.84966            -0.39419
C               4.06941            -0.00297            -2.08342
C               1.80268             1.70998             1.97013
C               4.09122             1.51753             1.01092
C               3.12318            -0.33015             2.41534
C              -0.43856            -1.30795             1.87755
O              -0.41095            -1.62583             3.00062
H              -2.83183             0.57256            -1.62364
C              -4.94907             0.26083            -1.26941
H              -3.30138            -1.08990            -1.72124
H              -3.15923            -1.56133             1.90082
C              -3.76067            -2.75974             0.22036
H              -4.72919            -1.09820             1.22071
O              -0.42814            -2.80611            -0.67688
H              -0.33580            -3.52086            -0.02406
O              -0.61338            -1.15136            -1.90677
H              -0.55624            -2.09066            -2.10584
H              -2.76014            -3.03621            -0.14703
H              -4.44872            -2.73423            -0.63776
H              -4.11881            -3.54129             0.90670
H              -5.20348             0.41296            -2.32920
H              -5.15108             1.20961            -0.74704
H              -5.64161            -0.49644            -0.87048
H               3.12188            -2.36761            -2.87327
H               1.66079            -1.33687            -2.72156
H               1.90150            -2.65761            -1.58958
H               4.76253            -2.48805            -1.07040
H               3.60053            -2.51364             0.27411
H               4.87835            -1.26618             0.21094
H               4.79421            -0.58213            -2.68087
H               4.63801             0.71947            -1.48279
H               3.44159             0.55297            -2.79457
H               4.90315             0.86030             0.66999
H               4.45533             2.04986             1.90691
H               3.91006             2.27514             0.23250
H               3.88566            -1.04704             2.08647
H               2.21528            -0.89106             2.68136
H               3.49864             0.15778             3.33074
H               2.19726             2.08402             2.92955
H               0.84099             1.21432             2.16944
H               1.61749             2.58235             1.32720
